139024764
  -OEChem-06222210252D

112119  0     0  0  0  0  0  0999 V2000
    6.3660  -10.0981    0.0000 Cl  0  0  0  0  0  0  0  0  0  0  0  0
    5.5000    2.5981    0.0000 S   0  0  0  0  0  0  0  0  0  0  0  0
    6.8660   -5.7680    0.0000 O   0  5  0  0  0  0  0  0  0  0  0  0
    8.0981    0.0981    0.0000 O   0  0  0  0  0  0  0  0  0  0  0  0
    4.6340   10.0981    0.0000 O   0  0  0  0  0  0  0  0  0  0  0  0
    7.2320    1.5981    0.0000 O   0  0  0  0  0  0  0  0  0  0  0  0
    4.5000    2.5981    0.0000 O   0  0  0  0  0  0  0  0  0  0  0  0
    6.5000    2.5981    0.0000 O   0  0  0  0  0  0  0  0  0  0  0  0
    8.0981    5.0981    0.0000 O   0  5  0  0  0  0  0  0  0  0  0  0
    7.2320    6.5981    0.0000 O   0  0  0  0  0  0  0  0  0  0  0  0
    6.3660   -4.9019    0.0000 N   0  3  0  0  0  0  0  0  0  0  0  0
    6.3660   -2.9019    0.0000 N   0  0  0  0  0  0  0  0  0  0  0  0
    5.5000    6.5981    0.0000 N   0  0  0  0  0  0  0  0  0  0  0  0
    5.5000    1.5981    0.0000 N   0  0  0  0  0  0  0  0  0  0  0  0
    7.2320    5.5981    0.0000 N   0  3  0  0  0  0  0  0  0  0  0  0
    9.8301   -1.9019    0.0000 N   0  0  0  0  0  0  0  0  0  0  0  0
   11.6424   -1.7067    0.0000 N   0  0  0  0  0  0  0  0  0  0  0  0
    2.8660   -5.7680    0.0000 C   0  0  0  0  0  0  0  0  0  0  0  0
    3.3660   -4.9019    0.0000 C   0  0  0  0  0  0  0  0  0  0  0  0
    4.8660   -5.7680    0.0000 C   0  0  0  0  0  0  0  0  0  0  0  0
    5.8660   -5.7680    0.0000 C   0  0  0  0  0  0  0  0  0  0  0  0
    3.3660   -6.6340    0.0000 C   0  0  0  0  0  0  0  0  0  0  0  0
    4.3660   -4.9019    0.0000 C   0  0  0  0  0  0  0  0  0  0  0  0
    4.3660   -6.6340    0.0000 C   0  0  0  0  0  0  0  0  0  0  0  0
    7.2320   -4.4019    0.0000 C   0  0  0  0  0  0  0  0  0  0  0  0
    5.5000   -4.4019    0.0000 C   0  0  0  0  0  0  0  0  0  0  0  0
    7.2320   -3.4019    0.0000 C   0  0  0  0  0  0  0  0  0  0  0  0
    5.5000   -3.4019    0.0000 C   0  0  0  0  0  0  0  0  0  0  0  0
    2.0000   -6.2680    0.0000 C   0  0  0  0  0  0  0  0  0  0  0  0
    2.0000   -5.2680    0.0000 C   0  0  0  0  0  0  0  0  0  0  0  0
    4.8660   -7.5000    0.0000 C   0  0  0  0  0  0  0  0  0  0  0  0
    6.3660   -1.9019    0.0000 C   0  0  0  0  0  0  0  0  0  0  0  0
    4.3660   -8.3660    0.0000 C   0  0  0  0  0  0  0  0  0  0  0  0
    5.8660   -7.5000    0.0000 C   0  0  0  0  0  0  0  0  0  0  0  0
    7.2320   -1.4019    0.0000 C   0  0  0  0  0  0  0  0  0  0  0  0
    5.5000   -1.4019    0.0000 C   0  0  0  0  0  0  0  0  0  0  0  0
    4.8660   -9.2320    0.0000 C   0  0  0  0  0  0  0  0  0  0  0  0
    6.3660   -8.3660    0.0000 C   0  0  0  0  0  0  0  0  0  0  0  0
    7.2320   -0.4019    0.0000 C   0  0  0  0  0  0  0  0  0  0  0  0
    5.8660   -9.2320    0.0000 C   0  0  0  0  0  0  0  0  0  0  0  0
    5.5000   -0.4019    0.0000 C   0  0  0  0  0  0  0  0  0  0  0  0
    6.3660    0.0981    0.0000 C   0  0  0  0  0  0  0  0  0  0  0  0
    4.6340    8.0981    0.0000 C   0  0  0  0  0  0  0  0  0  0  0  0
    3.7680    8.5981    0.0000 C   0  0  0  0  0  0  0  0  0  0  0  0
    5.5000    8.5981    0.0000 C   0  0  0  0  0  0  0  0  0  0  0  0
    4.6340    7.0981    0.0000 C   0  0  0  0  0  0  0  0  0  0  0  0
    3.7680    9.5981    0.0000 C   0  0  0  0  0  0  0  0  0  0  0  0
    5.5000    9.5981    0.0000 C   0  0  0  0  0  0  0  0  0  0  0  0
    6.3660    1.0981    0.0000 C   0  0  0  0  0  0  0  0  0  0  0  0
    8.9641   -0.4019    0.0000 C   0  0  0  0  0  0  0  0  0  0  0  0
    5.5000    5.5981    0.0000 C   0  0  0  0  0  0  0  0  0  0  0  0
    5.5000    3.5981    0.0000 C   0  0  0  0  0  0  0  0  0  0  0  0
    6.3660    5.0981    0.0000 C   0  0  0  0  0  0  0  0  0  0  0  0
    4.6340    5.0981    0.0000 C   0  0  0  0  0  0  0  0  0  0  0  0
    6.3660    4.0981    0.0000 C   0  0  0  0  0  0  0  0  0  0  0  0
    9.8301    0.0981    0.0000 C   0  0  0  0  0  0  0  0  0  0  0  0
    4.6340    4.0981    0.0000 C   0  0  0  0  0  0  0  0  0  0  0  0
    8.9641   -1.4019    0.0000 C   0  0  0  0  0  0  0  0  0  0  0  0
   10.6962   -0.4019    0.0000 C   0  0  0  0  0  0  0  0  0  0  0  0
   10.6962   -1.4019    0.0000 C   0  0  0  0  0  0  0  0  0  0  0  0
   11.6424   -0.0972    0.0000 C   0  0  0  0  0  0  0  0  0  0  0  0
   12.2260   -0.9019    0.0000 C   0  0  0  0  0  0  0  0  0  0  0  0
    3.4737   -4.2913    0.0000 H   0  0  0  0  0  0  0  0  0  0  0  0
    2.7834   -4.6899    0.0000 H   0  0  0  0  0  0  0  0  0  0  0  0
    5.7584   -6.3785    0.0000 H   0  0  0  0  0  0  0  0  0  0  0  0
    6.4486   -5.9800    0.0000 H   0  0  0  0  0  0  0  0  0  0  0  0
    2.7834   -6.8460    0.0000 H   0  0  0  0  0  0  0  0  0  0  0  0
    3.4737   -7.2446    0.0000 H   0  0  0  0  0  0  0  0  0  0  0  0
    4.9486   -4.6899    0.0000 H   0  0  0  0  0  0  0  0  0  0  0  0
    4.2584   -4.2913    0.0000 H   0  0  0  0  0  0  0  0  0  0  0  0
    7.4441   -4.9845    0.0000 H   0  0  0  0  0  0  0  0  0  0  0  0
    7.8426   -4.2943    0.0000 H   0  0  0  0  0  0  0  0  0  0  0  0
    4.8894   -4.2943    0.0000 H   0  0  0  0  0  0  0  0  0  0  0  0
    5.2880   -4.9845    0.0000 H   0  0  0  0  0  0  0  0  0  0  0  0
    7.8426   -3.5096    0.0000 H   0  0  0  0  0  0  0  0  0  0  0  0
    7.4441   -2.8193    0.0000 H   0  0  0  0  0  0  0  0  0  0  0  0
    5.2880   -2.8193    0.0000 H   0  0  0  0  0  0  0  0  0  0  0  0
    4.8894   -3.5096    0.0000 H   0  0  0  0  0  0  0  0  0  0  0  0
    1.6900   -5.7310    0.0000 H   0  0  0  0  0  0  0  0  0  0  0  0
    1.4631   -6.5780    0.0000 H   0  0  0  0  0  0  0  0  0  0  0  0
    2.3100   -6.8049    0.0000 H   0  0  0  0  0  0  0  0  0  0  0  0
    2.3100   -4.7310    0.0000 H   0  0  0  0  0  0  0  0  0  0  0  0
    1.4631   -4.9580    0.0000 H   0  0  0  0  0  0  0  0  0  0  0  0
    1.6900   -5.8049    0.0000 H   0  0  0  0  0  0  0  0  0  0  0  0
    3.7460   -8.3660    0.0000 H   0  0  0  0  0  0  0  0  0  0  0  0
    6.1760   -6.9631    0.0000 H   0  0  0  0  0  0  0  0  0  0  0  0
    7.7690   -1.7119    0.0000 H   0  0  0  0  0  0  0  0  0  0  0  0
    4.9631   -1.7119    0.0000 H   0  0  0  0  0  0  0  0  0  0  0  0
    4.5560   -9.7690    0.0000 H   0  0  0  0  0  0  0  0  0  0  0  0
    6.9860   -8.3660    0.0000 H   0  0  0  0  0  0  0  0  0  0  0  0
    4.9631   -0.0919    0.0000 H   0  0  0  0  0  0  0  0  0  0  0  0
    5.1709    7.7881    0.0000 H   0  0  0  0  0  0  0  0  0  0  0  0
    3.1574    8.7057    0.0000 H   0  0  0  0  0  0  0  0  0  0  0  0
    3.5559    8.0155    0.0000 H   0  0  0  0  0  0  0  0  0  0  0  0
    5.7120    8.0155    0.0000 H   0  0  0  0  0  0  0  0  0  0  0  0
    6.1106    8.7057    0.0000 H   0  0  0  0  0  0  0  0  0  0  0  0
    4.0234    7.2057    0.0000 H   0  0  0  0  0  0  0  0  0  0  0  0
    4.4219    6.5155    0.0000 H   0  0  0  0  0  0  0  0  0  0  0  0
    3.5559   10.1807    0.0000 H   0  0  0  0  0  0  0  0  0  0  0  0
    3.1574    9.4904    0.0000 H   0  0  0  0  0  0  0  0  0  0  0  0
    6.1106    9.4904    0.0000 H   0  0  0  0  0  0  0  0  0  0  0  0
    5.7120   10.1807    0.0000 H   0  0  0  0  0  0  0  0  0  0  0  0
    6.0369    6.9081    0.0000 H   0  0  0  0  0  0  0  0  0  0  0  0
    4.9631    1.2881    0.0000 H   0  0  0  0  0  0  0  0  0  0  0  0
    4.0970    5.4081    0.0000 H   0  0  0  0  0  0  0  0  0  0  0  0
    6.9030    3.7881    0.0000 H   0  0  0  0  0  0  0  0  0  0  0  0
    4.0970    3.7881    0.0000 H   0  0  0  0  0  0  0  0  0  0  0  0
    9.8301    0.7181    0.0000 H   0  0  0  0  0  0  0  0  0  0  0  0
    8.4272   -1.7119    0.0000 H   0  0  0  0  0  0  0  0  0  0  0  0
   11.8350    0.4921    0.0000 H   0  0  0  0  0  0  0  0  0  0  0  0
   11.8350   -2.2960    0.0000 H   0  0  0  0  0  0  0  0  0  0  0  0
   12.8460   -0.9019    0.0000 H   0  0  0  0  0  0  0  0  0  0  0  0
  1 40  1  0  0  0  0
  2  7  2  0  0  0  0
  2  8  2  0  0  0  0
  2 14  1  0  0  0  0
  2 52  1  0  0  0  0
  3 11  1  0  0  0  0
  4 39  1  0  0  0  0
  4 50  1  0  0  0  0
  5 47  1  0  0  0  0
  5 48  1  0  0  0  0
  6 49  2  0  0  0  0
  9 15  1  0  0  0  0
 10 15  2  0  0  0  0
 11 21  1  0  0  0  0
 11 25  1  0  0  0  0
 11 26  1  0  0  0  0
 12 27  1  0  0  0  0
 12 28  1  0  0  0  0
 12 32  1  0  0  0  0
 13 46  1  0  0  0  0
 13 51  1  0  0  0  0
 13103  1  0  0  0  0
 14 49  1  0  0  0  0
 14104  1  0  0  0  0
 15 53  1  0  0  0  0
 16 58  1  0  0  0  0
 16 60  2  0  0  0  0
 17 60  1  0  0  0  0
 17 62  1  0  0  0  0
 17111  1  0  0  0  0
 18 19  1  0  0  0  0
 18 22  1  0  0  0  0
 18 29  1  0  0  0  0
 18 30  1  0  0  0  0
 19 23  1  0  0  0  0
 19 63  1  0  0  0  0
 19 64  1  0  0  0  0
 20 21  1  0  0  0  0
 20 23  1  0  0  0  0
 20 24  2  0  0  0  0
 21 65  1  0  0  0  0
 21 66  1  0  0  0  0
 22 24  1  0  0  0  0
 22 67  1  0  0  0  0
 22 68  1  0  0  0  0
 23 69  1  0  0  0  0
 23 70  1  0  0  0  0
 24 31  1  0  0  0  0
 25 27  1  0  0  0  0
 25 71  1  0  0  0  0
 25 72  1  0  0  0  0
 26 28  1  0  0  0  0
 26 73  1  0  0  0  0
 26 74  1  0  0  0  0
 27 75  1  0  0  0  0
 27 76  1  0  0  0  0
 28 77  1  0  0  0  0
 28 78  1  0  0  0  0
 29 79  1  0  0  0  0
 29 80  1  0  0  0  0
 29 81  1  0  0  0  0
 30 82  1  0  0  0  0
 30 83  1  0  0  0  0
 30 84  1  0  0  0  0
 31 33  2  0  0  0  0
 31 34  1  0  0  0  0
 32 35  2  0  0  0  0
 32 36  1  0  0  0  0
 33 37  1  0  0  0  0
 33 85  1  0  0  0  0
 34 38  2  0  0  0  0
 34 86  1  0  0  0  0
 35 39  1  0  0  0  0
 35 87  1  0  0  0  0
 36 41  2  0  0  0  0
 36 88  1  0  0  0  0
 37 40  2  0  0  0  0
 37 89  1  0  0  0  0
 38 40  1  0  0  0  0
 38 90  1  0  0  0  0
 39 42  2  0  0  0  0
 41 42  1  0  0  0  0
 41 91  1  0  0  0  0
 42 49  1  0  0  0  0
 43 44  1  0  0  0  0
 43 45  1  0  0  0  0
 43 46  1  0  0  0  0
 43 92  1  0  0  0  0
 44 47  1  0  0  0  0
 44 93  1  0  0  0  0
 44 94  1  0  0  0  0
 45 48  1  0  0  0  0
 45 95  1  0  0  0  0
 45 96  1  0  0  0  0
 46 97  1  0  0  0  0
 46 98  1  0  0  0  0
 47 99  1  0  0  0  0
 47100  1  0  0  0  0
 48101  1  0  0  0  0
 48102  1  0  0  0  0
 50 56  1  0  0  0  0
 50 58  2  0  0  0  0
 51 53  2  0  0  0  0
 51 54  1  0  0  0  0
 52 55  2  0  0  0  0
 52 57  1  0  0  0  0
 53 55  1  0  0  0  0
 54 57  2  0  0  0  0
 54105  1  0  0  0  0
 55106  1  0  0  0  0
 56 59  2  0  0  0  0
 56108  1  0  0  0  0
 57107  1  0  0  0  0
 58109  1  0  0  0  0
 59 60  1  0  0  0  0
 59 61  1  0  0  0  0
 61 62  2  0  0  0  0
 61110  1  0  0  0  0
 62112  1  0  0  0  0
M  CHG  4   3  -1   9  -1  11   1  15   1
M  END
> <PUBCHEM_COMPOUND_CID>
139024764

> <PUBCHEM_COMPOUND_CANONICALIZED>
1

> <PUBCHEM_CACTVS_COMPLEXITY>
1690

> <PUBCHEM_CACTVS_HBOND_ACCEPTOR>
11

> <PUBCHEM_CACTVS_HBOND_DONOR>
3

> <PUBCHEM_CACTVS_ROTATABLE_BOND>
12

> <PUBCHEM_CACTVS_SUBSKEYS>
AAADcfB/vABEAAAAAAAAAAAAAAAAAWAAAAA8eNECAAAAAFgB/AAAHgYUQAAADw7h2yY/99/Z1AKpAjd3d3TCiDm1Z6Ap2bk/ftqObvbFv5uXOWzu8JvY6ae42eOfDAQAAiAIACAYCAAEQBAAQAAAAAAAAA==

> <PUBCHEM_IUPAC_OPENEYE_NAME>
4-[4-[[2-(4-chlorophenyl)-4,4-dimethyl-cyclohexen-1-yl]methyl]-4-oxido-piperazin-4-ium-1-yl]-N-[3-nitro-4-(tetrahydropyran-4-ylmethylamino)phenyl]sulfonyl-2-(1H-pyrrolo[2,3-b]pyridin-5-yloxy)benzamide

> <PUBCHEM_IUPAC_CAS_NAME>
4-[4-[[2-(4-chlorophenyl)-4,4-dimethyl-1-cyclohexenyl]methyl]-4-oxido-1-piperazin-4-iumyl]-N-[3-nitro-4-(4-oxanylmethylamino)phenyl]sulfonyl-2-(1H-pyrrolo[2,3-b]pyridin-5-yloxy)benzamide

> <PUBCHEM_IUPAC_NAME_MARKUP>
4-[4-[[2-(4-chlorophenyl)-4,4-dimethylcyclohexen-1-yl]methyl]-4-oxidopiperazin-4-ium-1-yl]-<I>N</I>-[3-nitro-4-(oxan-4-ylmethylamino)phenyl]sulfonyl-2-(1<I>H</I>-pyrrolo[2,3-b]pyridin-5-yloxy)benzamide

> <PUBCHEM_IUPAC_NAME>
4-[4-[[2-(4-chlorophenyl)-4,4-dimethylcyclohexen-1-yl]methyl]-4-oxidopiperazin-4-ium-1-yl]-N-[3-nitro-4-(oxan-4-ylmethylamino)phenyl]sulfonyl-2-(1H-pyrrolo[2,3-b]pyridin-5-yloxy)benzamide

> <PUBCHEM_IUPAC_SYSTEMATIC_NAME>
4-[4-[[2-(4-chlorophenyl)-4,4-dimethyl-cyclohexen-1-yl]methyl]-4-oxidanidyl-piperazin-4-ium-1-yl]-N-[3-nitro-4-(oxan-4-ylmethylamino)phenyl]sulfonyl-2-(1H-pyrrolo[2,3-b]pyridin-5-yloxy)benzamide

> <PUBCHEM_IUPAC_TRADITIONAL_NAME>
4-[4-[[2-(4-chlorophenyl)-4,4-dimethyl-cyclohexen-1-yl]methyl]-4-oxido-piperazin-4-ium-1-yl]-N-[3-nitro-4-(tetrahydropyran-4-ylmethylamino)phenyl]sulfonyl-2-(1H-pyrrolo[2,3-b]pyridin-5-yloxy)benzamide

> <PUBCHEM_IUPAC_INCHI>
InChI=1S/C45H50ClN7O8S/c1-45(2)15-11-33(39(26-45)31-3-5-34(46)6-4-31)29-53(57)19-17-51(18-20-53)35-7-9-38(42(24-35)61-36-23-32-12-16-47-43(32)49-28-36)44(54)50-62(58,59)37-8-10-40(41(25-37)52(55)56)48-27-30-13-21-60-22-14-30/h3-10,12,16,23-25,28,30,48H,11,13-15,17-22,26-27,29H2,1-2H3,(H,47,49)(H,50,54)

> <PUBCHEM_IUPAC_INCHIKEY>
CICPMKALXAZATM-UHFFFAOYSA-N

> <PUBCHEM_XLOGP3_AA>
7.6

> <PUBCHEM_EXACT_MASS>
883.3130104

> <PUBCHEM_MOLECULAR_FORMULA>
C45H50ClN7O8S

> <PUBCHEM_MOLECULAR_WEIGHT>
884.4

> <PUBCHEM_OPENEYE_CAN_SMILES>
CC1(CCC(=C(C1)C2=CC=C(C=C2)Cl)C[N+]3(CCN(CC3)C4=CC(=C(C=C4)C(=O)NS(=O)(=O)C5=CC(=C(C=C5)NCC6CCOCC6)[N+](=O)[O-])OC7=CN=C8C(=C7)C=CN8)[O-])C

> <PUBCHEM_OPENEYE_ISO_SMILES>
CC1(CCC(=C(C1)C2=CC=C(C=C2)Cl)C[N+]3(CCN(CC3)C4=CC(=C(C=C4)C(=O)NS(=O)(=O)C5=CC(=C(C=C5)NCC6CCOCC6)[N+](=O)[O-])OC7=CN=C8C(=C7)C=CN8)[O-])C

> <PUBCHEM_CACTVS_TPSA>
198

> <PUBCHEM_MONOISOTOPIC_WEIGHT>
883.3130104

> <PUBCHEM_TOTAL_CHARGE>
0

> <PUBCHEM_HEAVY_ATOM_COUNT>
62

> <PUBCHEM_ATOM_DEF_STEREO_COUNT>
0

> <PUBCHEM_ATOM_UDEF_STEREO_COUNT>
0

> <PUBCHEM_BOND_DEF_STEREO_COUNT>
0

> <PUBCHEM_BOND_UDEF_STEREO_COUNT>
0

> <PUBCHEM_ISOTOPIC_ATOM_COUNT>
0

> <PUBCHEM_COMPONENT_COUNT>
1

> <PUBCHEM_CACTVS_TAUTO_COUNT>
-1

> <PUBCHEM_COORDINATE_TYPE>
1
5
255

> <PUBCHEM_BONDANNOTATIONS>
16  58  8
16  60  8
17  60  8
17  62  8
31  33  8
31  34  8
32  35  8
32  36  8
33  37  8
34  38  8
35  39  8
36  41  8
37  40  8
38  40  8
39  42  8
41  42  8
50  56  8
50  58  8
51  53  8
51  54  8
52  55  8
52  57  8
53  55  8
54  57  8
56  59  8
59  60  8
59  61  8
61  62  8

$$$$
